2004.10.07 13:39 B C:\Web Sites\GEOS-CHEM\doc\man_old\geos_chem_0.html --> io.harvard.edu /as2/www/Documents/test/chemistry/trop/geos/doc/man_old geos_chem_0.html
2004.10.07 13:39 B C:\Web Sites\GEOS-CHEM\doc\man_old\geos_chem_1.html --> io.harvard.edu /as2/www/Documents/test/chemistry/trop/geos/doc/man_old geos_chem_1.html
2004.10.07 13:39 B C:\Web Sites\GEOS-CHEM\doc\man_old\geos_chem_2.html --> io.harvard.edu /as2/www/Documents/test/chemistry/trop/geos/doc/man_old geos_chem_2.html
2004.10.07 13:40 B C:\Web Sites\GEOS-CHEM\doc\man_old\geos_chem_3.html --> io.harvard.edu /as2/www/Documents/test/chemistry/trop/geos/doc/man_old geos_chem_3.html
2004.10.07 13:40 B C:\Web Sites\GEOS-CHEM\doc\man_old\geos_chem_4.html --> io.harvard.edu /as2/www/Documents/test/chemistry/trop/geos/doc/man_old geos_chem_4.html
2004.10.07 13:40 B C:\Web Sites\GEOS-CHEM\doc\man_old\geos_chem_5.html --> io.harvard.edu /as2/www/Documents/test/chemistry/trop/geos/doc/man_old geos_chem_5.html
2004.10.07 13:40 B C:\Web Sites\GEOS-CHEM\doc\man_old\geos_chem_6.html --> io.harvard.edu /as2/www/Documents/test/chemistry/trop/geos/doc/man_old geos_chem_6.html
2004.10.07 13:40 B C:\Web Sites\GEOS-CHEM\doc\man_old\geos_chem_7.html --> io.harvard.edu /as2/www/Documents/test/chemistry/trop/geos/doc/man_old geos_chem_7.html
2004.10.07 13:40 B C:\Web Sites\GEOS-CHEM\doc\man_old\geos_chem_8.html --> io.harvard.edu /as2/www/Documents/test/chemistry/trop/geos/doc/man_old geos_chem_8.html
2004.10.07 13:40 B C:\Web Sites\GEOS-CHEM\doc\man_old\geos_chem_a1.html --> io.harvard.edu /as2/www/Documents/test/chemistry/trop/geos/doc/man_old geos_chem_a1.html
2004.10.07 13:40 B C:\Web Sites\GEOS-CHEM\doc\man_old\geos_chem_a2.html --> io.harvard.edu /as2/www/Documents/test/chemistry/trop/geos/doc/man_old geos_chem_a2.html
2004.10.07 13:40 B C:\Web Sites\GEOS-CHEM\doc\man_old\geos_chem_a3.html --> io.harvard.edu /as2/www/Documents/test/chemistry/trop/geos/doc/man_old geos_chem_a3.html
2004.10.07 13:40 B C:\Web Sites\GEOS-CHEM\doc\man_old\geos_chem_a4.html --> io.harvard.edu /as2/www/Documents/test/chemistry/trop/geos/doc/man_old geos_chem_a4.html
2004.10.07 13:40 B C:\Web Sites\GEOS-CHEM\doc\man_old\geos_chem_a5.html --> io.harvard.edu /as2/www/Documents/test/chemistry/trop/geos/doc/man_old geos_chem_a5.html
2004.10.07 13:40 B C:\Web Sites\GEOS-CHEM\doc\man_old\geos_chem_a6.html --> io.harvard.edu /as2/www/Documents/test/chemistry/trop/geos/doc/man_old geos_chem_a6.html
2004.10.07 13:40 B C:\Web Sites\GEOS-CHEM\doc\man_old\geos_chem_toc.html --> io.harvard.edu /as2/www/Documents/test/chemistry/trop/geos/doc/man_old geos_chem_toc.html
2004.10.07 13:40 B C:\Web Sites\GEOS-CHEM\doc\man_old\index.html --> io.harvard.edu /as2/www/Documents/test/chemistry/trop/geos/doc/man_old index.html
2004.10.14 16:28 B C:\Web Sites\GEOS-CHEM\doc\man_old\geos_chem_0.html --> io.harvard.edu /as2/www/Documents/test/chemistry/trop/geos/doc/man_old geos_chem_0.html
2004.10.14 16:28 B C:\Web Sites\GEOS-CHEM\doc\man_old\geos_chem_1.html --> io.harvard.edu /as2/www/Documents/test/chemistry/trop/geos/doc/man_old geos_chem_1.html
2004.10.14 16:28 B C:\Web Sites\GEOS-CHEM\doc\man_old\geos_chem_a2.html --> io.harvard.edu /as2/www/Documents/test/chemistry/trop/geos/doc/man_old geos_chem_a2.html
2004.10.14 16:28 B C:\Web Sites\GEOS-CHEM\doc\man_old\geos_chem_a3.html --> io.harvard.edu /as2/www/Documents/test/chemistry/trop/geos/doc/man_old geos_chem_a3.html
