2004.10.14 14:16 B C:\Web Sites\GEOS-CHEM\doc\man\files\ratj.d.ch3i <-- sol.harvard.edu /as/home/ctm/bmy ratj.d.ch3i
2004.10.14 14:22 B C:\Web Sites\GEOS-CHEM\doc\man\files\ratj.d <-- sol.harvard.edu /as/home/ctm/bmy/testrun/runs/run.v7-01-02 ratj.d
2004.10.14 14:35 B C:\Web Sites\GEOS-CHEM\doc\man\files\input.geos <-- sol.harvard.edu /as/home/ctm/bmy/testrun/runs/run.v7-01-02 input.geos
2004.10.14 14:37 B C:\Web Sites\GEOS-CHEM\doc\man\files\input.geos <-- sol.harvard.edu /as/home/ctm/bmy/testrun/runs/run.v7-01-02 input.geos
2004.10.14 14:38 B C:\Web Sites\GEOS-CHEM\doc\man\files\input.geos <-- sol.harvard.edu /as/home/ctm/bmy/S/GEOS-CHEM.v7-01-02/run.v7-01-02.aerosol input.geos
2004.10.14 14:39 B C:\Web Sites\GEOS-CHEM\doc\man\files\input.geos <-- sol.harvard.edu /as/home/ctm/bmy/S/GEOS-CHEM.v7-01-02/run.v7-01-02.tagco input.geos
2004.10.14 14:39 B C:\Web Sites\GEOS-CHEM\doc\man\files\input.geos <-- sol.harvard.edu /as/home/ctm/bmy/S/GEOS-CHEM.v7-01-02/run.v7-01-02.tagco input.geos
2004.10.14 14:40 B C:\Web Sites\GEOS-CHEM\doc\man\files\input.geos <-- sol.harvard.edu /as/home/ctm/bmy/S/GEOS-CHEM.v7-01-02/run.v7-01-02.tagox input.geos
2004.10.14 16:28 B C:\Web Sites\GEOS-CHEM\doc\man\files\chemga.dat --> io.harvard.edu /as2/www/Documents/test/chemistry/trop/geos/doc/man/files chemga.dat
2004.10.14 16:28 B C:\Web Sites\GEOS-CHEM\doc\man\files\globchem.dat --> io.harvard.edu /as2/www/Documents/test/chemistry/trop/geos/doc/man/files globchem.dat
2004.10.14 16:28 B C:\Web Sites\GEOS-CHEM\doc\man\files\input.geos.aerosol --> io.harvard.edu /as2/www/Documents/test/chemistry/trop/geos/doc/man/files input.geos.aerosol
2004.10.14 16:28 B C:\Web Sites\GEOS-CHEM\doc\man\files\input.geos.fullchem --> io.harvard.edu /as2/www/Documents/test/chemistry/trop/geos/doc/man/files input.geos.fullchem
2004.10.14 16:28 B C:\Web Sites\GEOS-CHEM\doc\man\files\input.geos.tagco --> io.harvard.edu /as2/www/Documents/test/chemistry/trop/geos/doc/man/files input.geos.tagco
2004.10.14 16:28 B C:\Web Sites\GEOS-CHEM\doc\man\files\input.geos.tagox --> io.harvard.edu /as2/www/Documents/test/chemistry/trop/geos/doc/man/files input.geos.tagox
2004.10.14 16:28 B C:\Web Sites\GEOS-CHEM\doc\man\files\jv_atms.dat --> io.harvard.edu /as2/www/Documents/test/chemistry/trop/geos/doc/man/files jv_atms.dat
2004.10.14 16:28 B C:\Web Sites\GEOS-CHEM\doc\man\files\jv_spec.dat --> io.harvard.edu /as2/www/Documents/test/chemistry/trop/geos/doc/man/files jv_spec.dat
2004.10.14 16:28 B C:\Web Sites\GEOS-CHEM\doc\man\files\mglob.dat --> io.harvard.edu /as2/www/Documents/test/chemistry/trop/geos/doc/man/files mglob.dat
2004.10.14 16:28 B C:\Web Sites\GEOS-CHEM\doc\man\files\ratj.d --> io.harvard.edu /as2/www/Documents/test/chemistry/trop/geos/doc/man/files ratj.d
2004.10.14 16:28 B C:\Web Sites\GEOS-CHEM\doc\man\files\ratj.d.ch3i --> io.harvard.edu /as2/www/Documents/test/chemistry/trop/geos/doc/man/files ratj.d.ch3i
2004.10.14 16:28 B C:\Web Sites\GEOS-CHEM\doc\man\files\WS_FTP.LOG --> io.harvard.edu /as2/www/Documents/test/chemistry/trop/geos/doc/man/files WS_FTP.LOG
2004.10.15 11:33 B C:\Web Sites\GEOS-CHEM\doc\man\files\input.geos <-- sol.harvard.edu /as/home/ctm/bmy/testrun/runs/run.v7-01-02 input.geos
2004.10.15 11:35 B C:\Web Sites\GEOS-CHEM\doc\man\files\input.geos.fullchem --> io.harvard.edu /as2/www/Documents/test/chemistry/trop/geos/doc/man/files input.geos.fullchem
2004.10.20 11:28 B C:\Web Sites\GEOS-CHEM\doc\man\files\input.geos.aerosol --> io.harvard.edu /as2/www/Documents/test/chemistry/trop/geos/doc/man/files input.geos.aerosol
2004.10.20 11:51 B C:\Web Sites\GEOS-CHEM\doc\man\files\input.geos.aerosol --> io.harvard.edu /as2/www/Documents/test/chemistry/trop/geos/doc/man/files input.geos.aerosol
2004.10.20 11:51 B C:\Web Sites\GEOS-CHEM\doc\man\files\input.geos.fullchem --> io.harvard.edu /as2/www/Documents/test/chemistry/trop/geos/doc/man/files input.geos.fullchem
2004.10.20 11:51 B C:\Web Sites\GEOS-CHEM\doc\man\files\input.geos.tagco --> io.harvard.edu /as2/www/Documents/test/chemistry/trop/geos/doc/man/files input.geos.tagco
2004.10.20 11:51 B C:\Web Sites\GEOS-CHEM\doc\man\files\input.geos.tagox --> io.harvard.edu /as2/www/Documents/test/chemistry/trop/geos/doc/man/files input.geos.tagox
2005.04.18 10:43 B C:\Web Sites\GEOS-CHEM\doc\man\files\input.geos.tagHg <-- sol.harvard.edu /as/home/ctm/bmy/testrun/runs/run.v7-02-03.tagHg input.geos.tagHg
2005.04.19 15:05 B C:\Web Sites\GEOS-CHEM\doc\man\files\WS_FTP.LOG --> io.harvard.edu /as2/www/Documents/test/chemistry/trop/geos/doc/man/files WS_FTP.LOG
2005.04.19 15:05 B C:\Web Sites\GEOS-CHEM\doc\man\files\input.geos.tagHg --> io.harvard.edu /as2/www/Documents/test/chemistry/trop/geos/doc/man/files input.geos.tagHg
2005.04.19 15:05 B C:\Web Sites\GEOS-CHEM\doc\man\files\input.geos.tagox --> io.harvard.edu /as2/www/Documents/test/chemistry/trop/geos/doc/man/files input.geos.tagox
2005.04.19 15:05 B C:\Web Sites\GEOS-CHEM\doc\man\files\input.geos.tagco --> io.harvard.edu /as2/www/Documents/test/chemistry/trop/geos/doc/man/files input.geos.tagco
2005.04.19 15:05 B C:\Web Sites\GEOS-CHEM\doc\man\files\input.geos.fullchem --> io.harvard.edu /as2/www/Documents/test/chemistry/trop/geos/doc/man/files input.geos.fullchem
2005.04.19 15:05 B C:\Web Sites\GEOS-CHEM\doc\man\files\input.geos.aerosol --> io.harvard.edu /as2/www/Documents/test/chemistry/trop/geos/doc/man/files input.geos.aerosol
2005.04.19 15:05 B C:\Web Sites\GEOS-CHEM\doc\man\files\ratj.d.ch3i --> io.harvard.edu /as2/www/Documents/test/chemistry/trop/geos/doc/man/files ratj.d.ch3i
2005.11.09 10:19 B C:\Web Sites\GEOS-CHEM\doc\man\files\chemga.dat <-- GEOS-CHEM /as2/www/Documents/test/chemistry/trop/geos/doc/man/files chemga.dat
2005.11.09 10:19 B C:\Web Sites\GEOS-CHEM\doc\man\files\globchem.dat <-- GEOS-CHEM /as2/www/Documents/test/chemistry/trop/geos/doc/man/files globchem.dat
2005.11.09 10:19 B C:\Web Sites\GEOS-CHEM\doc\man\files\input.geos.aerosol <-- GEOS-CHEM /as2/www/Documents/test/chemistry/trop/geos/doc/man/files input.geos.aerosol
2005.11.09 10:19 B C:\Web Sites\GEOS-CHEM\doc\man\files\input.geos.co2 <-- GEOS-CHEM /as2/www/Documents/test/chemistry/trop/geos/doc/man/files input.geos.co2
2005.11.09 10:19 B C:\Web Sites\GEOS-CHEM\doc\man\files\input.geos.fullchem <-- GEOS-CHEM /as2/www/Documents/test/chemistry/trop/geos/doc/man/files input.geos.fullchem
2005.11.09 10:19 B C:\Web Sites\GEOS-CHEM\doc\man\files\input.geos.hcn_ch3cn <-- GEOS-CHEM /as2/www/Documents/test/chemistry/trop/geos/doc/man/files input.geos.hcn_ch3cn
2005.11.09 10:19 B C:\Web Sites\GEOS-CHEM\doc\man\files\input.geos.tagco <-- GEOS-CHEM /as2/www/Documents/test/chemistry/trop/geos/doc/man/files input.geos.tagco
2005.11.09 10:19 B C:\Web Sites\GEOS-CHEM\doc\man\files\input.geos.tagHg <-- GEOS-CHEM /as2/www/Documents/test/chemistry/trop/geos/doc/man/files input.geos.tagHg
2005.11.09 10:19 B C:\Web Sites\GEOS-CHEM\doc\man\files\input.geos.tagox <-- GEOS-CHEM /as2/www/Documents/test/chemistry/trop/geos/doc/man/files input.geos.tagox
2005.11.09 10:19 B C:\Web Sites\GEOS-CHEM\doc\man\files\jv_atms.dat <-- GEOS-CHEM /as2/www/Documents/test/chemistry/trop/geos/doc/man/files jv_atms.dat
2005.11.09 10:19 B C:\Web Sites\GEOS-CHEM\doc\man\files\jv_spec.dat <-- GEOS-CHEM /as2/www/Documents/test/chemistry/trop/geos/doc/man/files jv_spec.dat
2005.11.09 10:20 B C:\Web Sites\GEOS-CHEM\doc\man\files\mglob.dat <-- GEOS-CHEM /as2/www/Documents/test/chemistry/trop/geos/doc/man/files mglob.dat
2005.11.09 10:20 B C:\Web Sites\GEOS-CHEM\doc\man\files\ratj.d <-- GEOS-CHEM /as2/www/Documents/test/chemistry/trop/geos/doc/man/files ratj.d
2005.11.09 10:20 B C:\Web Sites\GEOS-CHEM\doc\man\files\ratj.d.ch3i <-- GEOS-CHEM /as2/www/Documents/test/chemistry/trop/geos/doc/man/files ratj.d.ch3i
2005.11.09 14:32 B C:\Web Sites\GEOS-CHEM\doc\man\files\WS_FTP.LOG --> io.harvard.edu /as2/www/Documents/test/chemistry/trop/geos/doc/man/files WS_FTP.LOG
2005.12.19 15:09 B C:\Web Sites\GEOS-CHEM\doc\man\files\WS_FTP.LOG --> io.harvard.edu /as2/www/Documents/test/chemistry/trop/geos/doc/man/files WS_FTP.LOG
2007.10.17 09:14 B C:\Documents and Settings\Bob Yantosca\My Documents\Web Sites\GEOS-CHEM\doc\man\files\chemga.dat --> europa.as.harvard.edu /san/as00/priv/www/Documents/test/chemistry/trop/geos/doc/man/files chemga.dat
2007.10.17 09:14 B C:\Documents and Settings\Bob Yantosca\My Documents\Web Sites\GEOS-CHEM\doc\man\files\globchem.dat --> europa.as.harvard.edu /san/as00/priv/www/Documents/test/chemistry/trop/geos/doc/man/files globchem.dat
2007.10.17 09:14 B C:\Documents and Settings\Bob Yantosca\My Documents\Web Sites\GEOS-CHEM\doc\man\files\input.geos.aerosol --> europa.as.harvard.edu /san/as00/priv/www/Documents/test/chemistry/trop/geos/doc/man/files input.geos.aerosol
2007.10.17 09:14 B C:\Documents and Settings\Bob Yantosca\My Documents\Web Sites\GEOS-CHEM\doc\man\files\input.geos.co2 --> europa.as.harvard.edu /san/as00/priv/www/Documents/test/chemistry/trop/geos/doc/man/files input.geos.co2
2007.10.17 09:14 B C:\Documents and Settings\Bob Yantosca\My Documents\Web Sites\GEOS-CHEM\doc\man\files\input.geos.fullchem --> europa.as.harvard.edu /san/as00/priv/www/Documents/test/chemistry/trop/geos/doc/man/files input.geos.fullchem
2007.10.17 09:14 B C:\Documents and Settings\Bob Yantosca\My Documents\Web Sites\GEOS-CHEM\doc\man\files\input.geos.hcn_ch3cn --> europa.as.harvard.edu /san/as00/priv/www/Documents/test/chemistry/trop/geos/doc/man/files input.geos.hcn_ch3cn
2007.10.17 09:14 B C:\Documents and Settings\Bob Yantosca\My Documents\Web Sites\GEOS-CHEM\doc\man\files\input.geos.tagco --> europa.as.harvard.edu /san/as00/priv/www/Documents/test/chemistry/trop/geos/doc/man/files input.geos.tagco
2007.10.17 09:14 B C:\Documents and Settings\Bob Yantosca\My Documents\Web Sites\GEOS-CHEM\doc\man\files\input.geos.tagHg --> europa.as.harvard.edu /san/as00/priv/www/Documents/test/chemistry/trop/geos/doc/man/files input.geos.tagHg
2007.10.17 09:14 B C:\Documents and Settings\Bob Yantosca\My Documents\Web Sites\GEOS-CHEM\doc\man\files\input.geos.tagox --> europa.as.harvard.edu /san/as00/priv/www/Documents/test/chemistry/trop/geos/doc/man/files input.geos.tagox
2007.10.17 09:14 B C:\Documents and Settings\Bob Yantosca\My Documents\Web Sites\GEOS-CHEM\doc\man\files\jv_atms.dat --> europa.as.harvard.edu /san/as00/priv/www/Documents/test/chemistry/trop/geos/doc/man/files jv_atms.dat
2007.10.17 09:14 B C:\Documents and Settings\Bob Yantosca\My Documents\Web Sites\GEOS-CHEM\doc\man\files\jv_spec.dat --> europa.as.harvard.edu /san/as00/priv/www/Documents/test/chemistry/trop/geos/doc/man/files jv_spec.dat
2007.10.17 09:14 B C:\Documents and Settings\Bob Yantosca\My Documents\Web Sites\GEOS-CHEM\doc\man\files\mglob.dat --> europa.as.harvard.edu /san/as00/priv/www/Documents/test/chemistry/trop/geos/doc/man/files mglob.dat
2007.10.17 09:14 B C:\Documents and Settings\Bob Yantosca\My Documents\Web Sites\GEOS-CHEM\doc\man\files\ratj.d --> europa.as.harvard.edu /san/as00/priv/www/Documents/test/chemistry/trop/geos/doc/man/files ratj.d
2007.10.17 09:14 B C:\Documents and Settings\Bob Yantosca\My Documents\Web Sites\GEOS-CHEM\doc\man\files\ratj.d.ch3i --> europa.as.harvard.edu /san/as00/priv/www/Documents/test/chemistry/trop/geos/doc/man/files ratj.d.ch3i
2007.10.17 09:14 B C:\Documents and Settings\Bob Yantosca\My Documents\Web Sites\GEOS-CHEM\doc\man\files\WS_FTP.LOG --> europa.as.harvard.edu /san/as00/priv/www/Documents/test/chemistry/trop/geos/doc/man/files WS_FTP.LOG
2008.04.28 10:10 B C:\Documents and Settings\Bob Yantosca\My Documents\Web Sites\GEOS-CHEM\doc\man\files\chemga.dat --> europa.as.harvard.edu /san/as00/pub/www/htdocs/ctm/geos/doc/man_test/files chemga.dat
2008.04.28 10:10 B C:\Documents and Settings\Bob Yantosca\My Documents\Web Sites\GEOS-CHEM\doc\man\files\globchem.dat --> europa.as.harvard.edu /san/as00/pub/www/htdocs/ctm/geos/doc/man_test/files globchem.dat
2008.04.28 10:10 B C:\Documents and Settings\Bob Yantosca\My Documents\Web Sites\GEOS-CHEM\doc\man\files\input.geos.aerosol --> europa.as.harvard.edu /san/as00/pub/www/htdocs/ctm/geos/doc/man_test/files input.geos.aerosol
2008.04.28 10:10 B C:\Documents and Settings\Bob Yantosca\My Documents\Web Sites\GEOS-CHEM\doc\man\files\input.geos.co2 --> europa.as.harvard.edu /san/as00/pub/www/htdocs/ctm/geos/doc/man_test/files input.geos.co2
2008.04.28 10:10 B C:\Documents and Settings\Bob Yantosca\My Documents\Web Sites\GEOS-CHEM\doc\man\files\input.geos.fullchem --> europa.as.harvard.edu /san/as00/pub/www/htdocs/ctm/geos/doc/man_test/files input.geos.fullchem
2008.04.28 10:10 B C:\Documents and Settings\Bob Yantosca\My Documents\Web Sites\GEOS-CHEM\doc\man\files\input.geos.hcn_ch3cn --> europa.as.harvard.edu /san/as00/pub/www/htdocs/ctm/geos/doc/man_test/files input.geos.hcn_ch3cn
2008.04.28 10:10 B C:\Documents and Settings\Bob Yantosca\My Documents\Web Sites\GEOS-CHEM\doc\man\files\input.geos.tagco --> europa.as.harvard.edu /san/as00/pub/www/htdocs/ctm/geos/doc/man_test/files input.geos.tagco
2008.04.28 10:10 B C:\Documents and Settings\Bob Yantosca\My Documents\Web Sites\GEOS-CHEM\doc\man\files\input.geos.tagHg --> europa.as.harvard.edu /san/as00/pub/www/htdocs/ctm/geos/doc/man_test/files input.geos.tagHg
2008.04.28 10:10 B C:\Documents and Settings\Bob Yantosca\My Documents\Web Sites\GEOS-CHEM\doc\man\files\input.geos.tagox --> europa.as.harvard.edu /san/as00/pub/www/htdocs/ctm/geos/doc/man_test/files input.geos.tagox
2008.04.28 10:10 B C:\Documents and Settings\Bob Yantosca\My Documents\Web Sites\GEOS-CHEM\doc\man\files\jv_atms.dat --> europa.as.harvard.edu /san/as00/pub/www/htdocs/ctm/geos/doc/man_test/files jv_atms.dat
2008.04.28 10:10 B C:\Documents and Settings\Bob Yantosca\My Documents\Web Sites\GEOS-CHEM\doc\man\files\jv_spec.dat --> europa.as.harvard.edu /san/as00/pub/www/htdocs/ctm/geos/doc/man_test/files jv_spec.dat
2008.04.28 10:10 B C:\Documents and Settings\Bob Yantosca\My Documents\Web Sites\GEOS-CHEM\doc\man\files\mglob.dat --> europa.as.harvard.edu /san/as00/pub/www/htdocs/ctm/geos/doc/man_test/files mglob.dat
2008.04.28 10:10 B C:\Documents and Settings\Bob Yantosca\My Documents\Web Sites\GEOS-CHEM\doc\man\files\ratj.d --> europa.as.harvard.edu /san/as00/pub/www/htdocs/ctm/geos/doc/man_test/files ratj.d
2008.04.28 10:10 B C:\Documents and Settings\Bob Yantosca\My Documents\Web Sites\GEOS-CHEM\doc\man\files\ratj.d.ch3i --> europa.as.harvard.edu /san/as00/pub/www/htdocs/ctm/geos/doc/man_test/files ratj.d.ch3i
